Circuit: *** SPICE deck for cell cell2{lay} from library SRAM_8x8

