Circuit: *** SPICE deck for cell cell2old{lay} from library SRAM_8x8

