Circuit: *** SPICE deck for cell column4_4{lay} from library SRAM_8x8

Ignoring BSIM parameter XL
Ignoring BSIM parameter XW
Ignoring BSIM parameter XL
Ignoring BSIM parameter XW
Warning: Pd = 3.0164e-005 is less than W.
Warning: Ps = 3.0164e-005 is less than W.
Warning: Ps = 3.0164e-005 is less than W.
Warning: Pd = 4.2077e-005 is less than W.
Direct Newton iteration failed to find .op point.  (Use ".option noopiter" to skip.)
Starting Gmin stepping
Gmin = 10
Gmin = 1.07374
Gmin = 0.115292
Gmin = 0.0123794
Gmin = 0.00132923
Gmin = 0.000142725
Gmin = 1.5325e-005
Gmin = 1.6455e-006
Gmin = 1.76685e-007
Gmin = 1.89714e-008
Gmin = 2.03704e-009
Gmin = 2.18725e-010
Gmin = 2.34854e-011
Gmin = 2.52173e-012
Gmin = 2.70769e-013
Gmin = 0
Gmin stepping succeeded in finding the operating point.


Date: Fri Apr 03 11:32:53 2015
Total elapsed time: 5.735 seconds.

tnom = 27
temp = 27
method = modified trap
totiter = 5597
traniter = 5111
tranpoints = 1949
accept = 1662
rejected = 287
matrix size = 263
fillins = 322
solver = Normal
Thread vector: 892.8/722.5[4] 247.6/82.2[4] 47.7/23.6[4] 4.4/1146.0[1]  2592/500
Matrix Compiler1: 89.7 KB object code size  35.0/17.8/[13.7]
Matrix Compiler2: 46.5 KB object code size  16.4/14.9/[9.6]


