Circuit: *** SPICE deck for cell column4_2{lay} from library SRAM_8x8

Ignoring BSIM parameter XL
Ignoring BSIM parameter XW
Ignoring BSIM parameter XL
Ignoring BSIM parameter XW
Unknown node in .ic card: "p54" -- ignoring
Unknown node in .ic card: "p41" -- ignoring
Direct Newton iteration failed to find .op point.  (Use ".option noopiter" to skip.)
Starting Gmin stepping
Gmin = 10
Gmin = 1.07374
Gmin = 0.115292
Gmin = 0.0123794
Gmin = 0.00132923
Gmin = 0.000142725
Gmin = 1.5325e-005
Gmin = 1.6455e-006
Gmin = 1.76685e-007
Gmin = 1.89714e-008
Gmin = 2.03704e-009
Gmin = 2.18725e-010
Gmin = 2.34854e-011
Gmin = 2.52173e-012
Gmin = 2.70769e-013
Gmin = 0
Gmin stepping succeeded in finding the operating point.


Date: Wed Apr 01 20:17:53 2015
Total elapsed time: 4.212 seconds.

tnom = 27
temp = 27
method = modified trap
totiter = 5486
traniter = 5000
tranpoints = 1930
accept = 1649
rejected = 281
matrix size = 263
fillins = 322
solver = Normal
Thread vector: 832.9/613.9[4] 216.0/97.7[4] 57.5/21.6[4] 4.7/5.0[1]  2592/500
Matrix Compiler1: 89.8 KB object code size  30.6/14.9/[12.3]
Matrix Compiler2:    3246 opcodes  12.7/[9.3]/11.4


