Circuit: *** SPICE deck for cell column4_3{lay} from library SRAM_8x8

Ignoring BSIM parameter XL
Ignoring BSIM parameter XW
Ignoring BSIM parameter XL
Ignoring BSIM parameter XW
Unknown node in .ic card: "p54" -- ignoring
Unknown node in .ic card: "p41" -- ignoring
Direct Newton iteration failed to find .op point.  (Use ".option noopiter" to skip.)
Starting Gmin stepping
Gmin = 10
Gmin = 1.07374
Gmin = 0.115292
Gmin = 0.0123794
Gmin = 0.00132923
Gmin = 0.000142725
Gmin = 1.5325e-005
Gmin = 1.6455e-006
Gmin = 1.76685e-007
Gmin = 1.89714e-008
Gmin = 2.03704e-009
Gmin = 2.18725e-010
Gmin = 2.34854e-011
Gmin = 2.52173e-012
Gmin = 2.70769e-013
Gmin = 0
Gmin stepping succeeded in finding the operating point.


Date: Wed Apr 01 22:43:30 2015
Total elapsed time: 4.771 seconds.

tnom = 27
temp = 27
method = modified trap
totiter = 5518
traniter = 5032
tranpoints = 1946
accept = 1656
rejected = 290
matrix size = 263
fillins = 322
solver = Normal
Thread vector: 943.9/730.3[4] 217.7/74.0[4] 60.2/30.9[4] 4.4/4.1[1]  2592/500
Matrix Compiler1: 89.8 KB object code size  31.0/14.7/[12.0]
Matrix Compiler2: 46.5 KB object code size  14.3/12.6/[9.4]


