Circuit: *** SPICE deck for cell column4{lay} from library SRAM_8x8

Ignoring BSIM parameter XL
Ignoring BSIM parameter XW
Ignoring BSIM parameter XL
Ignoring BSIM parameter XW
Direct Newton iteration for .op point succeeded.

Date: Wed Apr 01 19:55:48 2015
Total elapsed time: 3.323 seconds.

tnom = 27
temp = 27
method = modified trap
totiter = 4867
traniter = 4820
tranpoints = 1884
accept = 1610
rejected = 274
matrix size = 263
fillins = 322
solver = Normal
Thread vector: 812.7/656.8[4] 294.6/70.7[4] 47.8/18.0[4] 3.9/49.2[1]  2592/500
Matrix Compiler1: 89.7 KB object code size  29.2/17.5/[16.8]
Matrix Compiler2: off  [11.5]/12.9/12.6


